Circuit: * C:\Users\Tiago\Documents\EAGLE\projects\Remote Controller\LTspice Simulation\Battery_with_series_Schottky.asc


Date: Sat Jul 27 13:00:20 2019
Total elapsed time: 0.093 seconds.

tnom = 27
temp = 27
method = trap
totiter = 1690
traniter = 0
tranpoints = 0
accept = 0
rejected = 0
matrix size = 4
fillins = 0
solver = Normal
Matrix Compiler1: 234 bytes object code size  0.1/0.1/[0.1]
Matrix Compiler2:      24 opcodes  0.1/[0.0]/0.3

